Circuit: * D:\project\Luozhixiang\do#.asc

WARNING: Less than two connections to node -5V.  This node is used by V2.
Direct Newton iteration for .op point succeeded.

Date: Thu May 28 19:25:13 2020
Total elapsed time: 1.056 seconds.

tnom = 27
temp = 27
method = modified trap
totiter = 128585
traniter = 128577
tranpoints = 26515
accept = 20530
rejected = 5985
matrix size = 19
fillins = 0
solver = Normal
Matrix Compiler1: 526 bytes object code size  0.4/0.3/[0.2]
Matrix Compiler2: 1.06 KB object code size  0.4/0.5/[0.3]

