Circuit: * D:\project\Luozhixiang\do.asc

WARNING: Less than two connections to node -5V.  This node is used by V2.
Direct Newton iteration for .op point succeeded.

Date: Thu May 28 19:12:21 2020
Total elapsed time: 0.739 seconds.

tnom = 27
temp = 27
method = modified trap
totiter = 111322
traniter = 111314
tranpoints = 23173
accept = 18011
rejected = 5162
matrix size = 19
fillins = 0
solver = Normal
Matrix Compiler1: 526 bytes object code size  0.5/0.3/[0.3]
Matrix Compiler2: 1.06 KB object code size  0.4/0.5/[0.3]

