Circuit: * D:\project\Luozhixiang\re#.asc

WARNING: Less than two connections to node -5V.  This node is used by V2.
Direct Newton iteration for .op point succeeded.

Date: Thu May 28 19:20:55 2020
Total elapsed time: 1.128 seconds.

tnom = 27
temp = 27
method = modified trap
totiter = 122515
traniter = 122507
tranpoints = 25942
accept = 20246
rejected = 5696
matrix size = 19
fillins = 0
solver = Normal
Matrix Compiler1: 526 bytes object code size  0.4/0.3/[0.2]
Matrix Compiler2: 1.06 KB object code size  0.3/0.4/[0.3]

